[General]
network=heterosim.simulations.networks.SimpleNetwork
cmdenv-output-file = ${resultdir}/${configname}-${iterationvarsf}#${repetition}.out
debug-on-errors = true
print-undisposed = true
cmdenv-express-mode = true
cmdenv-autoflush = true
**.scalar-recording = true
**.vector-recording = false

sim-time-limit =10s
outputvectormanager-class="omnetpp::envir::SqliteOutputVectorManager"
outputscalarmanager-class="omnetpp::envir::SqliteOutputScalarManager"

#### cars numbers
*.numCars =${nbrTrs=100}

output-vector-file = ${resultdir}/${configname}-${nbrTrs}-${repetition}.vec
output-scalar-file = ${resultdir}/${configname}-${nbrTrs}-${repetition}.sca


#### CAR mobility parameters
*.*.mobility.initFromDisplayString = false
*.car[*].mobility.constraintAreaMaxX = 500m
*.car[*].mobility.constraintAreaMinX = 0m
*.car[*].mobility.constraintAreaMaxY = 500m
*.car[*].mobility.constraintAreaMinY = 0m
*.car[*].mobility.constraintAreaMaxZ = 1.5m
*.car[*].mobility.constraintAreaMinZ = 1.5m
*.car[*].mobility.speed = 5.3mps
#### Radio medium
*.radioMedium.pathLossType = "TwoRayInterference"

### common radio settings
*.car[*].wlan[*].typename = "VanetNic"
*.car[*].wlan[*].bitrate= ${bitrate=6} Mbps
*.car[*].wlan[*].mac.maxQueueSize = 4000
*.car[*].applLayer[*].msgLength=${packetLength=600}B

[Config LoadProducers]
########## LoadProducers settings
*.car[0..9].*.isDeciderActive=false
*.car[0..9].withMode4 = false
*.car[0..9].decisionMaker.mode4IsActive = false
*.car[0..9].numRadios = 1
*.car[0..9].numApps=1
*.car[0..9].wlan[0].radio.channelNumber = 172 #### Interface 0
*.car[0..9].*.interfaceToProtocolMapping="0:80211p"
*.car[0..9].applLayer[0].typename="ControlTrafficApp"
*.car[0..9].applLayer[0].interfaceId=0
*.car[0..9].applLayer[0].sendInterval= (${nbrTrs}-10)*((${packetLength} * 8) / ${bitrate}) * (100/(${OfferedLoadRate1=10 .. 100 step 10}))* 1us
*.car[0..9].applLayer[0].startTime=uniform(0s,this.sendInterval) 
*.car[0..9].applLayer[0].stopTime=-1s


######### Result files settings
seed-set=${repeatId=0} ## repetitions
output-vector-file = ${resultdir}/${configname}-${OfferedLoadRate1}-${repeatId}.vec
output-scalar-file = ${resultdir}/${configname}-${OfferedLoadRate1}-${repeatId}.sca

[Config decider]
include mode4.ini
extends=LoadProducers
num-rngs = 4
### common app setting
*.car[10..99].withMode4 = true
*.car[10..99].decisionMaker.mode4IsActive = true
**.mode4isActive = true ## To add components for Mode4 in network
*.car[10..99].*.interfaceToProtocolMapping="0:80211p,1:mode4"
### Application settings 
*.car[10..99].numApps = 4
#data traffic
*.car[10..99].applLayer[0].appID=0
*.car[10..99].applLayer[0].typename="VanetApp" ### example CAM messages
*.car[10..99].applLayer[0].sendInterval=0.1s ## 10 HZ CAM message frequency
*.car[10..99].applLayer[0].startTime= uniform(0.5s,1s)
#control data
*.car[10..99].applLayer[1..2].typename="ControlTrafficApp"
*.car[10..99].applLayer[1..2].stopTime=-1s
*.car[10..99].applLayer[1..2].sendInterval=0.1s ## 10 HZ CAM message frequency
*.car[10..99].applLayer[1..2].startTime=uniform(0s,this.sendInterval) 

#control data for network 1
*.car[10..99].applLayer[1].appID=1
*.car[10..99].applLayer[1].interfaceId =0 ## 802.11
#control data for network 2
*.car[10..99].applLayer[2].appID=2
*.car[10..99].applLayer[2].interfaceId =1 ## LTE

### Collect Stats parameters
*.car[*].*.averageMethod = "ema"
*.car[*].*.sendPeriod =0.1s
*.car[*].*.gamma =3

[Config CCA]
extends=decider
result-dir = MultiRAT_scenario/CCA
*.car[*].*.simpleWeights="0.4616,0.5383,0.0"


[Config VRU]
extends=decider
result-dir = MultiRAT_scenario/VRU
*.car[*].*.simpleWeights="0.0789,0.9210,0.0"

[Config TI]
extends=decider
result-dir = MultiRAT_scenario/TI
*.car[*].*.simpleWeights="0.8955,0.1044,0.0"


[Config random]
extends= decider
result-dir = MultiRAT_scenario/random
*.car[*].*.isDeciderActive =false


