[General]
network=heterosim.simulations.networks.SimpleNetwork
cmdenv-output-file = ${resultdir}/${configname}-${iterationvarsf}#${repetition}.out
debug-on-errors = true
print-undisposed = true
cmdenv-express-mode = true
cmdenv-autoflush = true
**.scalar-recording = true
**.vector-recording = false

sim-time-limit =10s
outputvectormanager-class="omnetpp::envir::SqliteOutputVectorManager"
outputscalarmanager-class="omnetpp::envir::SqliteOutputScalarManager"

#### cars numbers
*.numCars =${nbrTrs=10 .. 100 step 10}

output-vector-file = ${resultdir}/${configname}-${nbrTrs}-${repetition}.vec
output-scalar-file = ${resultdir}/${configname}-${nbrTrs}-${repetition}.sca


#### CAR mobility parameters
*.*.mobility.initFromDisplayString = false
*.car[*].mobility.constraintAreaMaxX = 500m
*.car[*].mobility.constraintAreaMinX = 0m
*.car[*].mobility.constraintAreaMaxY = 500m
*.car[*].mobility.constraintAreaMinY = 0m
*.car[*].mobility.constraintAreaMaxZ = 1.5m
*.car[*].mobility.constraintAreaMinZ = 1.5m
*.car[*].mobility.speed = 5.3mps
#### Radio medium
*.radioMedium.pathLossType = "TwoRayInterference"

[Config decider]
include mode4.ini
num-rngs = 4

### common IEEE 802 radio setting
*.car[*].numRadios = 1
*.car[*].wlan[*].typename = "VanetNic"
*.car[*].wlan[*].bitrate= ${bitrate=6} Mbps
*.car[*].wlan[*].mac.maxQueueSize = 4000
*.car[*].applLayer[*].msgLength=600B
### common app setting
*.car[*].withMode4 = true
*.car[*].decisionMaker.mode4IsActive = true
**.mode4isActive = true ## To add components for Mode4 in network
*.car[*].*.interfaceToProtocolMapping="0:80211p,1:mode4"
### Application settings 
*.car[*].numApps = 4
#data traffic
*.car[*].applLayer[0].appID=0
*.car[*].applLayer[0].typename="VanetApp" ### example CAM messages
*.car[*].applLayer[0].sendInterval=0.1s ## 10 HZ CAM message frequency
*.car[*].applLayer[0].startTime= uniform(0.5s,1s)

#control data
*.car[*].applLayer[1..2].typename="ControlTrafficApp"
*.car[*].applLayer[1..2].stopTime=-1s
*.car[*].applLayer[1..2].sendInterval=0.1s ## 10 HZ CAM message frequency
*.car[*].applLayer[1..2].startTime=uniform(0s,this.sendInterval) 

#control data for network 1
*.car[*].applLayer[1].appID=1
*.car[*].applLayer[1].interfaceId =0 ## 802.11
#control data for network 2
*.car[*].applLayer[2].appID=2
*.car[*].applLayer[2].interfaceId =1 ## LTE
### Dynamic traffic App for 802.11
*.car[*].applLayer[3].typename="DynamicTrafficRateApp2"
*.car[*].applLayer[3].interfaceId =0
*.car[*].applLayer[3].startTime =uniform(0s,0.3s)
*.car[*].applLayer[3].offeredLoadRefreshInterval =0.1s
*.car[*].applLayer[3].nbrNodes=${nbrTrs}

### Collect Stats parameters
*.car[*].*.averageMethod = "ema"
*.car[*].*.sendPeriod =0.1s
*.car[*].*.gamma =3


[Config CCA]
extends=decider
result-dir = MultiRAT_scenario/CCA
*.car[*].*.simpleWeights="0.4616,0.5383,0.0"


[Config VRU]
extends=decider
result-dir = MultiRAT_scenario/VRU
*.car[*].*.simpleWeights="0.0789,0.9210,0.0"

[Config TI]
extends=decider
result-dir = MultiRAT_scenario/TI
*.car[*].*.simpleWeights="0.8955,0.1044,0.0"


[Config random]
extends= decider
result-dir = MultiRAT_scenario/random
*.car[*].*.isDeciderActive =false


